Sistemas teste e codigos/Artigo_Testes_Sistema118barras/6_Contingencias_Linhas/Sistemas/Contingencias/Linha84_54_59.cdf
 0 /0 /0  Sistema de 118 barra  100.0 - Contigencia na linha 54-59
BUS DATA FOLLOWS                       125 ITEMS                                                                              
   1  Riversde  V  1     2  0.955   10.7    109.7      58.1       0       0     1.0             15      -5     0.0       0  0.0
   2  Pokagon   V  1     0  0.971   11.2       43      19.4       0       0     1.0              0       0     0.0       0  0.0
   3  HickryCk  V  1     0  0.968   11.6     83.9      21.5       0       0     1.0              0       0     0.0       0  0.0
   4  NwCarlsl  V  1     2  0.998   15.3     83.9      25.8       0       0     1.0            300    -300     0.0       0  0.0
   5  Olive     V  1     0  1.002   15.7        0         0       0       0     1.0              0       0     0.0    -0.4  0.0
   6  Kankakee  V  1     2  0.990     13    111.8      47.3       0       0     1.0             50     -13     0.0       0  0.0
   7  JacksnRd  V  1     0  0.989   12.6     40.9       4.3       0       0     1.0              0       0     0.0       0  0.0
   8  Olive     V  1     2  1.015   20.8     60.2         0       0       0     1.0            300    -300     0.0       0  0.0
   9  Bequine   V  1     0  1.043     28        0         0       0       0     1.0              0       0     0.0       0  0.0
  10  Breed     V  1     2  1.050   35.6        0         0     540       0     1.0            200    -147     0.0       0  0.0
  11  SouthBnd  V  1     0  0.985   12.7    150.5      49.5       0       0     1.0              0       0     0.0       0  0.0
  12  TwinBrch  V  1     2  0.990   12.2    101.1      21.5     291       0     1.0            120     -35     0.0       0  0.0
  13  Concord   V  2     0  0.968   11.3     73.1      34.4       0       0     1.0              0       0     0.0       0  0.0
  14  GoshenJt  V  1     0  0.984   11.5     30.1       2.2       0       0     1.0              0       0     0.0       0  0.0
  15  FtWayne   V  2     2  0.970   11.2    193.5      64.5       0       0     1.0             30     -10     0.0       0  0.0
  16  N. E.     V  1     0  0.984   11.9     53.8      21.5       0       0     1.0              0       0     0.0       0  0.0
  17  Sorenson  V  2     0  0.995   13.7     23.7       6.5       0       0     1.0              0       0     0.0       0  0.0
  18  McKinley  V  2     2  0.973   11.5      129      73.1       0       0     1.0             50     -16     0.0       0  0.0
  19  Lincoln   V  2     2  0.962   11.1     96.8      53.8       0       0     1.0             24      -8     0.0       0  0.0
  20  Adams     V  2     0  0.958   11.9     38.7       6.5       0       0     1.0              0       0     0.0       0  0.0
  21  Jay       V  2     0  0.959   13.5     30.1      17.2       0       0     1.0              0       0     0.0       0  0.0
  22  Randolph  V  2     0  0.970   16.1     21.5      10.8       0       0     1.0              0       0     0.0       0  0.0
  23  CollCrnr  V  2     0  1.000     21     15.1       6.5       0       0     1.0              0       0     0.0       0  0.0
  24  Trenton   V  3     2  0.992   20.9       28         0       0       0     1.0            300    -300     0.0       0  0.0
  25  TannrsCk  V  2     2  1.050   27.9        0         0     383       0     1.0            140     -47     0.0       0  0.0
  26  TannrsCk  V  2     2  1.015   29.7        0         0     447       0     1.0           1000   -1000     0.0       0  0.0
  27  Madison   V  2     2  0.968   15.4    152.7        28       0       0     1.0            300    -300     0.0       0  0.0
  28  Mullin    V  2     0  0.962   13.6     36.6      15.1       0       0     1.0              0       0     0.0       0  0.0
  29  Grant     V  2     0  0.963   12.6     51.6       8.6       0       0     1.0              0       0     0.0       0  0.0
  30  Sorenson  V  2     0  0.968   18.8        0         0       0       0     1.0              0       0     0.0       0  0.0
  31  DeerCrk   V  2     2  0.967   12.8     92.5      58.1     238       0     1.0            300    -300     0.0       0  0.0
  32  Delaware  V  2     2  0.963   14.8    126.9      49.5       0       0     1.0             42     -14     0.0       0  0.0
  33  Haviland  V  2     0  0.972   10.6     49.5      19.4       0       0     1.0              0       0     0.0       0  0.0
  34  Rockhill  V  3     2  0.984   11.3    126.9      55.9       0       0     1.0             24      -8     0.0    0.14  0.0
  35  WestLima  V  3     0  0.981   10.9       71      19.4       0       0     1.0              0       0     0.0       0  0.0
  36  Sterling  V  3     2  0.980   10.9     66.7      36.6       0       0     1.0             24      -8     0.0       0  0.0
  37  EastLima  V  3     0  0.992   11.8        0         0       0       0     1.0              0       0     0.0   -0.25  0.0
  38  EastLima  V  3     0  0.962   16.9        0         0       0       0     1.0              0       0     0.0       0  0.0
  39  NwLibrty  V  3     0  0.970    8.4     58.1      23.7       0       0     1.0              0       0     0.0       0  0.0
  40  West End  V  3     2  0.970    7.4    141.9      49.5       0       0     1.0            300    -300     0.0       0  0.0
  41  S.Tiffin  V  3     0  0.967    6.9     79.6      21.5       0       0     1.0              0       0     0.0       0  0.0
  42  Howard    V  3     2  0.985    8.5    206.4      49.5       0       0     1.0            300    -300     0.0       0  0.0
  43  S.Kenton  V  3     0  0.978   11.3     38.7      15.1       0       0     1.0              0       0     0.0       0  0.0
  44  WMVernon  V  4     0  0.985   13.8     34.4      17.2       0       0     1.0              0       0     0.0     0.1  0.0
  45  N.Newark  V  4     0  0.987   15.7      114      47.3       0       0     1.0              0       0     0.0     0.1  0.0
  46  W.Lancst  V  4     2  1.005   18.5     60.2      21.5     246       0     1.0            100    -100     0.0     0.1  0.0
  47  Crooksvl  V  4     0  1.017   20.7     73.1         0       0       0     1.0              0       0     0.0       0  0.0
  48  Zanesvll  V  4     0  1.021   19.9       43      23.7       0       0     1.0              0       0     0.0    0.15  0.0
  49  Philo     V  4     2  1.025   20.9    187.1      64.5     372       0     1.0            210     -85     0.0       0  0.0
  50  WCambrdg  V  4     0  1.001   18.9     36.6       8.6       0       0     1.0              0       0     0.0       0  0.0
  51  Newcmrst  V  4     0  0.967   16.3     36.6      17.2       0       0     1.0              0       0     0.0       0  0.0
  52  SCoshoct  V  5     0  0.957   15.3     38.7      10.8       0       0     1.0              0       0     0.0       0  0.0
  53  Wooster   V  5     0  0.946   14.4     49.5      23.7       0       0     1.0              0       0     0.0       0  0.0
  54  Torrey    V  4     2  0.955   15.3      243      68.8     266       0     1.0            300    -300     0.0       0  0.0
  55  Wagenhls  V  5     2  0.952     15    135.5      47.3       0       0     1.0             23      -8     0.0       0  0.0
  56  Sunnysde  V  5     2  0.954   15.2    180.6      38.7       0       0     1.0             15      -8     0.0       0  0.0
  57  WNwPhil1  V  5     0  0.971   16.4     25.8       6.5       0       0     1.0              0       0     0.0       0  0.0
  58  WNwPhil2  V  5     0  0.959   15.5     25.8       6.5       0       0     1.0              0       0     0.0       0  0.0
  59  Tidd      V  5     2  0.985   19.4    595.6       243     339       0     1.0            180     -60     0.0       0  0.0
  60  SWKammer  V  5     0  0.993   23.2    167.7       6.5       0       0     1.0              0       0     0.0       0  0.0
  61  W.Kammer  V  5     2  0.995     24        0         0     342       0     1.0            300    -100     0.0       0  0.0
  62  Natrium   V  5     2  0.998   23.4    165.6      30.1       0       0     1.0             20     -20     0.0       0  0.0
  63  Tidd      V  5     0  0.969   22.8        0         0       0       0     1.0              0       0     0.0       0  0.0
  64  Kammer    V  5     0  0.984   24.5        0         0       0       0     1.0              0       0     0.0       0  0.0
  65  Muskngum  V  4     2  1.005   27.7        0         0     499       0     1.0            200     -67     0.0       0  0.0
  66  Muskngum  V  4     2  1.050   27.5     83.9      38.7     500       0     1.0            200     -67     0.0       0  0.0
  67  Summerfl  V  4     0  1.020   24.8     60.2      15.1       0       0     1.0              0       0     0.0       0  0.0
  68  Sporn     V  4     0  1.003   27.6        0         0       0       0     1.0              0       0     0.0       0  0.0
  69  Sporn     V  4     3  1.035     30        0         0    1026       0     1.0            300    -300     0.0       0  0.0
  70  Portsmth  V  3     2  0.984   22.6    141.9        43       0       0     1.0             32     -10     0.0       0  0.0
  71  NPortsmt  V  3     0  0.987   22.1        0         0       0       0     1.0              0       0     0.0       0  0.0
  72  Hillsbro  V  3     2  0.980     21     25.8         0       0       0     1.0            100    -100     0.0       0  0.0
  73  Sargents  V  3     2  0.991   21.9     12.9         0       0       0     1.0            100    -100     0.0       0  0.0
  74  Bellefnt  V  3     2  0.958   21.6    146.2      58.1       0       0     1.0              9      -6     0.0    0.12  0.0
  75  SthPoint  V  3     0  0.967   22.9    101.1      23.7       0       0     1.0              0       0     0.0       0  0.0
  76  Darrah    V  4     2  0.943   21.8    146.2      77.4       0       0     1.0             23      -8     0.0       0  0.0
  77  Turner    V  4     2  1.006   26.7    131.2      60.2       0       0     1.0             70     -20     0.0       0  0.0
  78  Chemical  V  4     0  1.003   26.4    152.7      55.9       0       0     1.0              0       0     0.0       0  0.0
  79  CapitlHl  V  4     0  1.009   26.7     83.9      68.8       0       0     1.0              0       0     0.0     0.2  0.0
  80  CabinCrk  V  4     2  1.040     29    279.5      55.9     558       0     1.0            280    -165     0.0       0  0.0
  81  Kanawha   V  4     0  0.997   28.1        0         0       0       0     1.0              0       0     0.0       0  0.0
  82  Logan     V  4     0  0.989   27.2    116.1      58.1       0       0     1.0              0       0     0.0     0.2  0.0
  83  Sprigg    V  6     0  0.985   28.4       43      21.5       0       0     1.0              0       0     0.0     0.1  0.0
  84  BetsyLne  V  6     0  0.980     31     23.7      15.1       0       0     1.0              0       0     0.0       0  0.0
  85  BeaverCk  V  6     2  0.985   32.5     51.6      32.3       0       0     1.0             23      -8     0.0       0  0.0
  86  Hazard    V  6     0  0.987   31.1     45.2      21.5       0       0     1.0              0       0     0.0       0  0.0
  87  Pinevlle  V  6     2  1.015   31.4        0         0     236       0     1.0           1000    -100     0.0       0  0.0
  88  Fremont   V  6     0  0.987   35.6    103.2      21.5       0       0     1.0              0       0     0.0       0  0.0
  89  ClinchRv  V  6     2  1.005   39.7        0         0     646       0     1.0            300    -210     0.0       0  0.0
  90  Holston   V  6     2  0.985   33.3    350.5      90.3       0       0     1.0            300    -300     0.0       0  0.0
  91  HolstonT  V  6     2  0.980   33.3     21.5         0       0       0     1.0            100    -100     0.0       0  0.0
  92  Saltvlle  V  6     2  0.990   33.8    139.8      21.5       0       0     1.0              9      -3     0.0       0  0.0
  93  Tazewell  V  6     0  0.987   30.8     25.8      15.1       0       0     1.0              0       0     0.0       0  0.0
  94  Switchbk  V  6     0  0.991   28.6     64.5      34.4       0       0     1.0              0       0     0.0       0  0.0
  95  Caldwell  V  4     0  0.981   27.7     90.3      66.7       0       0     1.0              0       0     0.0       0  0.0
  96  Baileysv  V  4     0  0.993   27.5     81.7      32.3       0       0     1.0              0       0     0.0       0  0.0
  97  Sundial   V  4     0  1.011   27.9     32.3      19.4       0       0     1.0              0       0     0.0       0  0.0
  98  Bradley   V  6     0  1.024   27.4     73.1      17.2       0       0     1.0              0       0     0.0       0  0.0
  99  Hinton    V  6     2  1.010     27     90.3         0       0       0     1.0            100    -100     0.0       0  0.0
 100  Glen Lyn  V  6     2  1.017     28     79.6      38.7     405       0     1.0            155     -50     0.0       0  0.0
 101  Wythe     V  6     0  0.993   29.6     47.3      32.3       0       0     1.0              0       0     0.0       0  0.0
 102  Smythe    V  6     0  0.991   32.3     10.8       6.5       0       0     1.0              0       0     0.0       0  0.0
 103  Claytor   V  6     2  1.010   24.4     49.5      34.4     261       0     1.0             40     -15     0.0       0  0.0
 104  Hancock   V  6     2  0.971   21.7     81.7      53.8       0       0     1.0             23      -8     0.0       0  0.0
 105  Roanoke   V  6     2  0.965   20.6     66.7      55.9       0       0     1.0             23      -8     0.0     0.2  0.0
 106  Cloverdl  V  6     0  0.962   20.3     92.5      34.4       0       0     1.0              0       0     0.0       0  0.0
 107  Reusens   V  6     2  0.952   17.5    107.5      25.8       0       0     1.0            200    -200     0.0    0.06  0.0
 108  Blaine    V  6     0  0.967   19.4      4.3       2.2       0       0     1.0              0       0     0.0       0  0.0
 109  Franklin  V  6     0  0.967   18.9     17.2       6.5       0       0     1.0              0       0     0.0       0  0.0
 110  Fieldale  V  6     2  0.973   18.1     83.9      64.5       0       0     1.0             23      -8     0.0    0.06  0.0
 111  DanRiver  V  6     2  0.980   19.7        0         0     258       0     1.0           1000    -100     0.0       0  0.0
 112  Danville  V  6     2  0.975     15    146.2        28       0       0     1.0           1000    -100     0.0       0  0.0
 113  Deer Crk  V  2     2  0.993   13.7     12.9         0       0       0     1.0            200    -100     0.0       0  0.0
 114  WMedford  V  2     0  0.960   14.5     17.2       6.5       0       0     1.0              0       0     0.0       0  0.0
 115  Medford   V  2     0  0.960   14.5     47.3      15.1       0       0     1.0              0       0     0.0       0  0.0
 116  KygerCrk  V  4     2  1.005   27.1    395.6         0       0       0     1.0           1000   -1000     0.0       0  0.0
 117  Corey     V  1     0  0.974   10.7       43      17.2       0       0     1.0              0       0     0.0       0  0.0
 118  WHuntngd  V  4     0  0.949   21.9       71      32.3       0       0     1.0              0       0     0.0       0  0.0
 128      Eolica-  7     0  1.015   20.8     -200         0       0       0     1.0              0       0     0.0       0  0.0
 138     Eolica-3  7     0  0.963   14.8     -200         0       0       0     1.0              0       0     0.0       0  0.0
 148     Eolica-4  7     0  0.985    8.5     -200         0       0       0     1.0              0       0     0.0       0  0.0
 158     Eolica-5  7     0  0.952     15     -200         0       0       0     1.0              0       0     0.0       0  0.0
 168     Eolica-7  7     0  0.943   21.8     -200         0       0       0     1.0              0       0     0.0       0  0.0
 178     Eolica-9  7     0  0.990   33.8     -200         0       0       0     1.0              0       0     0.0       0  0.0
 188    Eolica-10  7     0  0.965   20.6     -200         0       0       0     1.0              0       0     0.0       0  0.0
-999
BRANCH DATA FOLLOWS                    193 ITEMS                                                                              
   1    2              0.0303     0.0999    0.0254                             0.0     0.0                                    
   1    3              0.0129     0.0424   0.01082                             0.0     0.0                                    
   4    5             0.00176    0.00798    0.0021                             0.0     0.0                                    
   3    5              0.0241      0.108    0.0284                             0.0     0.0                                    
   5    6              0.0119      0.054   0.01426                             0.0     0.0                                    
   6    7             0.00459     0.0208    0.0055                             0.0     0.0                                    
   8    9             0.00244     0.0305     1.162                             0.0     0.0                                    
   8    5                   0     0.0267         0                           0.985     0.0                                    
   9   10             0.00258     0.0322      1.23                             0.0     0.0                                    
   4   11              0.0209     0.0688   0.01748                             0.0     0.0                                    
   5   11              0.0203     0.0682   0.01738                             0.0     0.0                                    
  11   12             0.00595     0.0196   0.00502                             0.0     0.0                                    
   2   12              0.0187     0.0616   0.01572                             0.0     0.0                                    
   3   12              0.0484       0.16    0.0406                             0.0     0.0                                    
   7   12             0.00862      0.034   0.00874                             0.0     0.0                                    
  11   13             0.02225     0.0731   0.01876                             0.0     0.0                                    
  12   14              0.0215     0.0707   0.01816                             0.0     0.0                                    
  13   15              0.0744     0.2444   0.06268                             0.0     0.0                                    
  14   15              0.0595      0.195    0.0502                             0.0     0.0                                    
  12   16              0.0212     0.0834    0.0214                             0.0     0.0                                    
  15   17              0.0132     0.0437    0.0444                             0.0     0.0                                    
  16   17              0.0454     0.1801    0.0466                             0.0     0.0                                    
  17   18              0.0123     0.0505   0.01298                             0.0     0.0                                    
  18   19             0.01119     0.0493   0.01142                             0.0     0.0                                    
  19   20              0.0252      0.117    0.0298                             0.0     0.0                                    
  15   19               0.012     0.0394    0.0101                             0.0     0.0                                    
  20   21              0.0183     0.0849    0.0216                             0.0     0.0                                    
  21   22              0.0209      0.097    0.0246                             0.0     0.0                                    
  22   23              0.0342      0.159    0.0404                             0.0     0.0                                    
  23   24              0.0135     0.0492    0.0498                             0.0     0.0                                    
  23   25              0.0156       0.08    0.0864                             0.0     0.0                                    
  26   25                   0     0.0382         0                            0.96     0.0                                    
  25   27              0.0318      0.163    0.1764                             0.0     0.0                                    
  27   28             0.01913     0.0855    0.0216                             0.0     0.0                                    
  28   29              0.0237     0.0943    0.0238                             0.0     0.0                                    
  30   17                   0     0.0388         0                            0.96     0.0                                    
   8   30             0.00431     0.0504     0.514                             0.0     0.0                                    
  26   30             0.00799      0.086     0.908                             0.0     0.0                                    
  17   31              0.0474     0.1563    0.0399                             0.0     0.0                                    
  29   31              0.0108     0.0331    0.0083                             0.0     0.0                                    
  23   32              0.0317     0.1153    0.1173                             0.0     0.0                                    
  31   32              0.0298     0.0985    0.0251                             0.0     0.0                                    
  27   32              0.0229     0.0755   0.01926                             0.0     0.0                                    
  15   33               0.038     0.1244   0.03194                             0.0     0.0                                    
  19   34              0.0752      0.247    0.0632                             0.0     0.0                                    
  35   36             0.00224     0.0102   0.00268                             0.0     0.0                                    
  35   37               0.011     0.0497   0.01318                             0.0     0.0                                    
  33   37              0.0415      0.142    0.0366                             0.0     0.0                                    
  34   36             0.00871     0.0268   0.00568                             0.0     0.0                                    
  34   37             0.00256     0.0094   0.00984                             0.0     0.0                                    
  38   37                   0     0.0375         0                           0.935     0.0                                    
  37   39              0.0321      0.106     0.027                             0.0     0.0                                    
  37   40              0.0593      0.168     0.042                             0.0     0.0                                    
  30   38             0.00464      0.054     0.422                             0.0     0.0                                    
  39   40              0.0184     0.0605   0.01552                             0.0     0.0                                    
  40   41              0.0145     0.0487   0.01222                             0.0     0.0                                    
  40   42              0.0555      0.183    0.0466                             0.0     0.0                                    
  41   42               0.041      0.135    0.0344                             0.0     0.0                                    
  43   44              0.0608     0.2454   0.06068                             0.0     0.0                                    
  34   43              0.0413     0.1681   0.04226                             0.0     0.0                                    
  44   45              0.0224     0.0901    0.0224                             0.0     0.0                                    
  45   46                0.04     0.1356    0.0332                             0.0     0.0                                    
  46   47               0.038      0.127    0.0316                             0.0     0.0                                    
  46   48              0.0601      0.189    0.0472                             0.0     0.0                                    
  47   49              0.0191     0.0625   0.01604                             0.0     0.0                                    
  42   49              0.0715      0.323     0.086                             0.0     0.0                                    
  42   49              0.0715      0.323     0.086                             0.0     0.0                                    
  45   49              0.0684      0.186    0.0444                             0.0     0.0                                    
  48   49              0.0179     0.0505   0.01258                             0.0     0.0                                    
  49   50              0.0267     0.0752   0.01874                             0.0     0.0                                    
  49   51              0.0486      0.137    0.0342                             0.0     0.0                                    
  51   52              0.0203     0.0588   0.01396                             0.0     0.0                                    
  52   53              0.0405     0.1635   0.04058                             0.0     0.0                                    
  53   54              0.0263      0.122     0.031                             0.0     0.0                                    
  49   54               0.073      0.289    0.0738                             0.0     0.0                                    
  49   54              0.0869      0.291     0.073                             0.0     0.0                                    
  54   55              0.0169     0.0707    0.0202                             0.0     0.0                                    
  54   56             0.00275    0.00955   0.00732                             0.0     0.0                                    
  55   56             0.00488     0.0151   0.00374                             0.0     0.0                                    
  56   57              0.0343     0.0966    0.0242                             0.0     0.0                                    
  50   57              0.0474      0.134    0.0332                             0.0     0.0                                    
  56   58              0.0343     0.0966    0.0242                             0.0     0.0                                    
  51   58              0.0255     0.0719   0.01788                             0.0     0.0                                    
  56   59              0.0825      0.251    0.0569                             0.0     0.0                                    
  56   59              0.0803      0.239    0.0536                             0.0     0.0                                    
  55   59             0.04739     0.2158   0.05646                             0.0     0.0                                    
  59   60              0.0317      0.145    0.0376                             0.0     0.0                                    
  59   61              0.0328       0.15    0.0388                             0.0     0.0                                    
  60   61             0.00264     0.0135   0.01456                             0.0     0.0                                    
  60   62              0.0123     0.0561   0.01468                             0.0     0.0                                    
  61   62             0.00824     0.0376    0.0098                             0.0     0.0                                    
  63   59                   0     0.0386         0                            0.96     0.0                                    
  63   64             0.00172       0.02     0.216                             0.0     0.0                                    
  64   61                   0     0.0268         0                           0.985     0.0                                    
  38   65             0.00901     0.0986     1.046                             0.0     0.0                                    
  64   65             0.00269     0.0302      0.38                             0.0     0.0                                    
  49   66               0.018     0.0919    0.0248                             0.0     0.0                                    
  49   66               0.018     0.0919    0.0248                             0.0     0.0                                    
  62   66              0.0482      0.218    0.0578                             0.0     0.0                                    
  62   67              0.0258      0.117     0.031                             0.0     0.0                                    
  65   66                   0      0.037         0                           0.935     0.0                                    
  66   67              0.0224     0.1015   0.02682                             0.0     0.0                                    
  65   68             0.00138      0.016     0.638                             0.0     0.0                                    
  47   69              0.0844     0.2778   0.07092                             0.0     0.0                                    
  49   69              0.0985      0.324    0.0828                             0.0     0.0                                    
  68   69                   0      0.037         0                           0.935     0.0                                    
  69   70                0.03      0.127     0.122                             0.0     0.0                                    
  24   70             0.00221     0.4115   0.10198                             0.0     0.0                                    
  70   71             0.00882     0.0355   0.00878                             0.0     0.0                                    
  24   72              0.0488      0.196    0.0488                             0.0     0.0                                    
  71   72              0.0446       0.18   0.04444                             0.0     0.0                                    
  71   73             0.00866     0.0454   0.01178                             0.0     0.0                                    
  70   74              0.0401     0.1323   0.03368                             0.0     0.0                                    
  70   75              0.0428      0.141     0.036                             0.0     0.0                                    
  69   75              0.0405      0.122     0.124                             0.0     0.0                                    
  74   75              0.0123     0.0406   0.01034                             0.0     0.0                                    
  76   77              0.0444      0.148    0.0368                             0.0     0.0                                    
  69   77              0.0309      0.101    0.1038                             0.0     0.0                                    
  75   77              0.0601     0.1999   0.04978                             0.0     0.0                                    
  77   78             0.00376     0.0124   0.01264                             0.0     0.0                                    
  78   79             0.00546     0.0244   0.00648                             0.0     0.0                                    
  77   80               0.017     0.0485    0.0472                             0.0     0.0                                    
  77   80              0.0294      0.105    0.0228                             0.0     0.0                                    
  79   80              0.0156     0.0704    0.0187                             0.0     0.0                                    
  68   81             0.00175     0.0202     0.808                             0.0     0.0                                    
  81   80                   0      0.037         0                           0.935     0.0                                    
  77   82              0.0298     0.0853   0.08174                             0.0     0.0                                    
  82   83              0.0112    0.03665   0.03796                             0.0     0.0                                    
  83   84              0.0625      0.132    0.0258                             0.0     0.0                                    
  83   85               0.043      0.148    0.0348                             0.0     0.0                                    
  84   85              0.0302     0.0641   0.01234                             0.0     0.0                                    
  85   86               0.035      0.123    0.0276                             0.0     0.0                                    
  86   87             0.02828     0.2074    0.0445                             0.0     0.0                                    
  85   88                0.02      0.102    0.0276                             0.0     0.0                                    
  85   89              0.0239      0.173     0.047                             0.0     0.0                                    
  88   89              0.0139     0.0712   0.01934                             0.0     0.0                                    
  89   90              0.0518      0.188    0.0528                             0.0     0.0                                    
  89   90              0.0238     0.0997     0.106                             0.0     0.0                                    
  90   91              0.0254     0.0836    0.0214                             0.0     0.0                                    
  89   92              0.0099     0.0505    0.0548                             0.0     0.0                                    
  89   92              0.0393     0.1581    0.0414                             0.0     0.0                                    
  91   92              0.0387     0.1272   0.03268                             0.0     0.0                                    
  92   93              0.0258     0.0848    0.0218                             0.0     0.0                                    
  92   94              0.0481      0.158    0.0406                             0.0     0.0                                    
  93   94              0.0223     0.0732   0.01876                             0.0     0.0                                    
  94   95              0.0132     0.0434    0.0111                             0.0     0.0                                    
  80   96              0.0356      0.182    0.0494                             0.0     0.0                                    
  82   96              0.0162      0.053    0.0544                             0.0     0.0                                    
  94   96              0.0269     0.0869     0.023                             0.0     0.0                                    
  80   97              0.0183     0.0934    0.0254                             0.0     0.0                                    
  80   98              0.0238      0.108    0.0286                             0.0     0.0                                    
  80   99              0.0454      0.206    0.0546                             0.0     0.0                                    
  92  100              0.0648      0.295    0.0472                             0.0     0.0                                    
  94  100              0.0178      0.058    0.0604                             0.0     0.0                                    
  95   96              0.0171     0.0547   0.01474                             0.0     0.0                                    
  96   97              0.0173     0.0885     0.024                             0.0     0.0                                    
  98  100              0.0397      0.179    0.0476                             0.0     0.0                                    
  99  100               0.018     0.0813    0.0216                             0.0     0.0                                    
 100  101              0.0277     0.1262    0.0328                             0.0     0.0                                    
  92  102              0.0123     0.0559   0.01464                             0.0     0.0                                    
 101  102              0.0246      0.112    0.0294                             0.0     0.0                                    
 100  103               0.016     0.0525    0.0536                             0.0     0.0                                    
 100  104              0.0451      0.204    0.0541                             0.0     0.0                                    
 103  104              0.0466     0.1584    0.0407                             0.0     0.0                                    
 103  105              0.0535     0.1625    0.0408                             0.0     0.0                                    
 100  106              0.0605      0.229     0.062                             0.0     0.0                                    
 104  105             0.00994     0.0378   0.00986                             0.0     0.0                                    
 105  106               0.014     0.0547   0.01434                             0.0     0.0                                    
 105  107               0.053      0.183    0.0472                             0.0     0.0                                    
 105  108              0.0261     0.0703   0.01844                             0.0     0.0                                    
 106  107               0.053      0.183    0.0472                             0.0     0.0                                    
 108  109              0.0105     0.0288    0.0076                             0.0     0.0                                    
 103  110             0.03906     0.1813    0.0461                             0.0     0.0                                    
 109  110              0.0278     0.0762    0.0202                             0.0     0.0                                    
 110  111               0.022     0.0755      0.02                             0.0     0.0                                    
 110  112              0.0247      0.064     0.062                             0.0     0.0                                    
  17  113             0.00913     0.0301   0.00768                             0.0     0.0                                    
  32  113              0.0615      0.203    0.0518                             0.0     0.0                                    
  32  114              0.0135     0.0612   0.01628                             0.0     0.0                                    
  27  115              0.0164     0.0741   0.01972                             0.0     0.0                                    
 114  115              0.0023     0.0104   0.00276                             0.0     0.0                                    
  68  116             0.00034    0.00405     0.164                             0.0     0.0                                    
  12  117              0.0329       0.14    0.0358                             0.0     0.0                                    
  75  118              0.0145     0.0481   0.01198                             0.0     0.0                                    
  76  118              0.0164     0.0544   0.01356                             0.0     0.0                                    
   8  128                   0      1e-07         0                             0.0     0.0                                    
  32  138                   0      1e-07         0                             0.0     0.0                                    
  42  148                   0      1e-07         0                             0.0     0.0                                    
  55  158                   0      1e-07         0                             0.0     0.0                                    
  76  168                   0      1e-07         0                             0.0     0.0                                    
  92  178                   0      1e-07         0                             0.0     0.0                                    
 105  188                   0      1e-07         0                             0.0     0.0                                    
-999
END OF DATA
